5
Generated by custom code of Tom Froembgen
B -0.00019775921889909396 0.00027427289843485157 3.4252470970245235e-05
F 1.1231531389274233e-16 1.4305943048730027e-17 1.4128186388556467
F 1.1478599870053965 0.6757812206519086 -0.47110657859818933
F 0.011918061223755466 -1.332010791454871 -0.4709051045495349
F -1.159665513775966 0.6560734964069324 -0.4708264470019934
